* Modelo RLC parásito para Capacitor Cerámico de 1nF
* Diseñado para alta fidelidad en simulación (Filtros, desacoplo)
* Pin 1: Entrada/Terminal A, Pin 2: Salida/Terminal B
.SUBCKT CAP_1nF 1 2
C1      1 3  1n
R_ESR   3 4  80m
L_ESL   4 2  5n
.ENDS